17
Coordinates from ORCA-job cccn_scan
  C   -0.40729911355479     -0.57584339390429     -2.03440813846704
  C   0.40513872432852     -0.04010463467132     -1.01844556646933
  C   -1.65559331830827     -1.13872748618887     -1.73021970402006
  C   -0.02719197394047     -0.08058734854479      0.32927289524878
  C   -2.07425578218693     -1.21590241863449     -0.39031418870271
  C   -1.27408592269057     -0.67011562584027      0.62200542883486
  H   -3.03836147513507     -1.67031117321802     -0.14077866479558
  H   -1.60110988659946     -0.66413719115979      1.66551335841762
  C   0.60892428810225      0.71384800607055      1.46186590359766
  H   -0.05098174668199     -0.55255053582032     -3.07115805875894
  N   1.74334350139209      0.42945069111179     -1.29619402495375
  O   0.16196394359711      0.66886694288892      2.59147453756371
  O   1.65496165250195      1.49276757790368      1.14287436132589
  H   1.85076813360590      1.34655857696273      0.18218932612752
  H   -2.28253066775947     -1.54050235805434     -2.53291642077367
  H   1.83281480358205      0.70523393411308     -2.27661078136887
  H   2.40962596226318     -0.33324892310221     -1.14398800025507
