17
Coordinates from ORCA-job cccn_scan
  C   -0.29800743215421     -0.81089438082303     -1.97789467398993
  C   0.42354305977112     -0.08855028893977     -1.00994809403411
  C   -1.55289515669363     -1.35954424596662     -1.67489691979328
  C   -0.12027459273842      0.09315933292399      0.28423634201241
  C   -2.11180430580109     -1.15365064188908     -0.40152522700390
  C   -1.39370643114660     -0.44051883806551      0.56722713892366
  H   -3.09679416866776     -1.56535934558360     -0.15969065012126
  H   -1.79022868919119     -0.29106566105239      1.57528479983174
  C   0.62508882704412      0.70109429025589      1.46280427460271
  H   0.13158053455587     -0.93804473651995     -2.97872244485170
  N   1.69805677850609      0.51752990796719     -1.32166655367532
  O   0.06779424576027      0.90345531013871      2.52415512806323
  O   1.92998545338361      0.96513761087280      1.28524165723449
  H   2.15216011811154      0.73716511255029      0.34688010494044
  H   -2.09749983689940     -1.92687650469788     -2.43664445842873
  H   1.55507062570706      1.49036456903427     -1.61041288557324
  H   2.13406209296863      0.04129314970672     -2.11426527558619
