17
Coordinates from ORCA-job cccn_scan
  C   -0.22267080320721     -0.92032035505150     -1.91863464550659
  C   0.46078743922301     -0.11827365112242     -0.98653566854322
  C   -1.50183383536686     -1.41957457833376     -1.63098566054564
  C   -0.14525652258879      0.21030107103943      0.25350611238433
  C   -2.13535153806716     -1.05056832358763     -0.43107910453372
  C   -1.44102185662341     -0.28390655764511      0.51462007009646
  H   -3.14538088646665     -1.40991487092046     -0.20951237713026
  H   -1.86597700880049     -0.08433445546348      1.50262639201416
  C   0.67030130925072      0.55301564198634      1.49549941240784
  H   0.24981672177734     -1.13746925285913     -2.88416260435588
  N   1.62536244373533      0.64741454891028     -1.36971441041409
  O   0.17636450901234      0.53543501271897      2.60504832134006
  O   1.97100979906206      0.82525987694802      1.29808177822632
  H   2.13150219642563      0.80970990773061      0.32056407554050
  H   -2.01606859395788     -2.05538802959259     -2.35918837693627
  H   1.32270177824318      1.56890343039577     -1.69389011269936
  H   2.12184597086483      0.20440522475865     -2.14608093879363
