17
Coordinates from ORCA-job cccn_scan
  C   -0.12450370650462     -1.02675625210145     -1.81989932407244
  C   0.51915295064542     -0.11688244355224     -0.95960771875556
  C   -1.42474959244603     -1.48130051336901     -1.54923684511550
  C   -0.13739728444295      0.34452936673164      0.22371015624116
  C   -2.13023899331571     -0.93695617255503     -0.46154187060160
  C   -1.46125894224171     -0.10101150009002      0.44473051750594
  H   -3.16478238039656     -1.23935070798950     -0.26957953047071
  H   -1.92208845395125      0.15163124779944      1.40511498603812
  C   0.68085776628025      0.38045552387932      1.51225007575450
  H   0.38420899522216     -1.33427587569175     -2.74203791758057
  N   1.52299807603959      0.78287781188745     -1.47468447540653
  O   0.20905627079123      0.14082312109927      2.60139909389313
  O   1.99569018108296      0.63931207092634      1.33925484515680
  H   2.13007130493108      0.84224456537453      0.38556261662271
  H   -1.90559172099650     -2.19901684722975     -2.22235301745741
  H   1.06197557492148      1.63990885583229     -1.77890418346375
  H   2.02273107689714      0.38846238896050     -2.27401514573728
