17
Coordinates from ORCA-job cccn_scan
  C   -0.42364193311571     -0.52978677346952     -2.03634657234828
  C   0.40357241420336     -0.02219004734150     -1.01783464985484
  C   -1.66310080610167     -1.10997932128155     -1.72845325131771
  C   -0.00085124422570     -0.11105386382142      0.33730426851265
  C   -2.05099133436441     -1.24403942137187     -0.38360200262872
  C   -1.24067146633380     -0.71656446815477      0.63053247471491
  H   -3.00553563274994     -1.71692878767145     -0.13151999320470
  H   -1.55928288232411     -0.72898198316983      1.67671546558519
  C   0.57869907875210      0.75512866323117      1.44907041206888
  H   -0.08368904498946     -0.47516646407270     -3.07746148541912
  N   1.76422498293062      0.38302788604732     -1.28846107469312
  O   0.08575785455617      0.77126891478571      2.55977943567214
  O   1.62772888168872      1.52840005967501      1.12549259024102
  H   1.86759594810483      1.32414247968519      0.18562743048788
  H   -2.30330838262850     -1.48790324435588     -2.53230895171564
  H   1.87280254295076      0.67179470238075     -2.26328543545097
  H   2.38682214616273     -0.41647369118266     -1.14508639809852
