17
Coordinates from ORCA-job geom_opt
  C   -1.63798762981485      0.83998390400409      0.04767606492533
  C   -0.23260513330603      0.95892941110406      0.04990462713107
  C   -2.25992076115082     -0.39939669308776     -0.00381208343695
  C   0.53368203118594     -0.23467405636376      0.04231498215856
  C   -1.49810301484305     -1.57535985076214     -0.01614878718016
  C   -0.11337737729115     -1.48461823387298     -0.00653479280224
  H   -1.98289258200462     -2.54688834207998     -0.05463203867314
  H   0.49402814848062     -2.38384324639127     -0.02194324341644
  C   2.00621860862035     -0.17285044042773     -0.00283792664094
  H   -2.23683685287155      1.74922159695389      0.06782682547894
  N   0.33845963598695      2.21262475178896      0.17082009560525
  O   2.68952052783490      0.84675627048348     -0.10076047571478
  O   2.59831562000998     -1.39701347899747      0.06925670744458
  H   3.55911027341021     -1.20992090589193      0.01792455717418
  H   -3.34666464954594     -0.45088144284637     -0.01289444632058
  H   1.32074399487281      2.26687713645374     -0.07610878729174
  H   -0.23169083957374      2.98105361993317     -0.16005127844094
