17
Coordinates from ORCA-job cccn_scan
  C   -0.25020178160371     -0.88317722066118     -1.94268690419583
  C   0.44677784883035     -0.11106490253806     -0.99548281874888
  C   -1.52086777715286     -1.39988093877730     -1.64906249552000
  C   -0.13987512287354      0.17003426034554      0.26346094566932
  C   -2.12954991203778     -1.08696748859736     -0.42083139507294
  C   -1.42691186801562     -0.33979562962788      0.53388626670352
  H   -3.13081608523954     -1.46514374313671     -0.19113834241439
  H   -1.84148169943368     -0.15695979043138      1.52931569029651
  C   0.65719658536573      0.60676314472492      1.48658882992609
  H   0.20842580722872     -1.07000642717247     -2.92107355795170
  N   1.65243760989017      0.60280550603617     -1.35003524712042
  O   0.14402274983226      0.66672575862228      2.58663590392246
  O   1.95840731713623      0.87568595893642      1.29336422054232
  H   2.13834259566689      0.78660332225960      0.32257364218257
  H   -2.04559984626940     -2.01131782176820     -2.39046100879490
  H   1.40361692801723      1.54398498377518     -1.66576594996963
  H   2.13220777317455      0.14640566792245     -2.12912551690310
