14
Coordinates from ORCA-job aniline
  C   -4.33513458190823      1.37411983306517     -0.26202893190210
  C   -2.00992450088192      1.80481212068790      0.23298469636776
  C   -3.30195570358766      2.29188042099301     -0.01770682061259
  H   -0.74473148730308      0.07668015034893      0.40046062697230
  C   -4.07321845657447      0.00404287219246     -0.28342332692450
  H   -4.88677591622661     -0.69052449962592     -0.48140447722445
  H   -5.34448935643096      1.73979652767373     -0.44546904528887
  N   -3.57652264432092      3.66857751090622      0.07395241865807
  C   -2.78363095597046     -0.47718700558636     -0.04320039303345
  C   -1.75467674944464      0.43349259272733      0.21021885356076
  H   -2.58207829784823     -1.54497348351673     -0.06093488301646
  H   -1.20256364427446      2.50697011136130      0.43623936951605
  H   -2.77469870371838      4.25200665130534     -0.14322016402614
  H   -4.37397600150998      3.95580419746761     -0.48465492304640
