15
Coordinates from ORCA-job benzoicacid
  C   -4.36067356252502      1.40085078303921     -0.53545946233759
  C   -2.10060818827409      1.89119972633906      0.20307189964227
  C   -3.35959672466495      2.33248532583808     -0.23023720599856
  H   -0.87046091114179      0.18252706078494      0.65938863400754
  C   -4.09189637259943      0.03614824727524     -0.44041277063855
  H   -4.86603179152769     -0.68558144820649     -0.68938438102052
  H   -5.33739238212529      1.76407782955724     -0.84365332675272
  C   -3.70254548624615      3.78423222591808     -0.34201044822343
  C   -2.83247281940807     -0.40546669986840     -0.02053063580010
  C   -1.84244164925177      0.52287758403557      0.31074374909579
  H   -2.62701215718983     -1.47029470458766      0.05847197137988
  H   -1.33590800396025      2.60332625570544      0.50963428366545
  O   -2.66064007474553      4.62872360439247     -0.60584660399952
  H   -1.87533733689836      4.10011920521010     -0.83867251995587
  O   -4.83030353944177      4.22164300456712     -0.21490418306409
